   16

Au      4.132085    3.619484    3.932947
Au      5.805042    5.846184    3.924880
Au      5.859150    4.037505    6.059668
Au      3.438026    5.532634    5.763884
Au      4.320935    8.049560    4.987972
Au      6.379082   10.129696    5.116946
Au      6.880985    7.446142    5.801380
Au      4.479178   10.036175    6.982762
Au      4.376733    4.660682    8.365281
Au      6.855512    5.752005    7.893414
Au      6.383525    4.909732   10.541042
Au      4.388807    6.686003   10.345249
Au      3.707919    7.393897    7.692888
Au      7.062217    9.317191    7.835373
Au      7.147382    7.574320    9.886764
Au      4.668948    9.269586    9.610836
